$DATA1 SOURCE='PrimeSim HSPICE' VERSION='R-2020.12-SP2 win64' PARAM_COUNT=0
.TITLE '* hspice deck for a 2 to 4 decoder'
 leakage0         leakage1         leakage2         leakage3        
 temper           alter#          
  1.208e-05        1.208e-05        1.208e-05        1.208e-05      
  100.0000        4               
