$DATA1 SOURCE='PrimeSim HSPICE' VERSION='R-2020.12-SP2 win64' PARAM_COUNT=0
.TITLE '* hspice deck for a 2 to 4 decoder'
 leakage0         temper           alter#          
  7.507e-07        100.0000        1               
